/*--------------------------------*- C++ -*----------------------------------*\
| =========                 |                                                 |
| \\      /  F ield         | OpenFOAM: The Open Source CFD Toolbox           |
|  \\    /   O peration     | Version:  v2212                                 |
|   \\  /    A nd           | Website:  www.openfoam.com                      |
|    \\/     M anipulation  |                                                 |
\*---------------------------------------------------------------------------*/
FoamFile
{
    version     2.0;
    format      ascii;
    class       dictionary;
    object      fvSchemes;
}
// * * * * * * * * * * * * * * * * * * * * * * * * * * * * * * * * * * * * * //

ddtSchemes
{
    // default             steadyState;
    default             Euler;
}

gradSchemes
{
    default             Gauss linear;

    limited             cellLimited Gauss linear 1;
}

divSchemes
{
    default             none;

    div(phi,U)          bounded Gauss linearUpwind limited;

    div(phi,e)          bounded Gauss linearUpwind limited;
    div(phi,h)          bounded Gauss linearUpwind limited;
    div(phi,Ekp)        bounded Gauss linearUpwind limited;
    div(phi,K)          bounded Gauss linearUpwind limited;

    turbulence          bounded Gauss linearUpwind limited;
    div(phi,omega)      $turbulence;
    div(phi,epsilon)    $turbulence;
    div(phi,k)          $turbulence;
    div(phiv,p)         $turbulence;

    div(((rho*nuEff)*dev2(T(grad(U)))))      Gauss linear;
}

laplacianSchemes
{
    default         Gauss linear corrected;
}

interpolationSchemes
{
    default         linear;
}

snGradSchemes
{
    default         corrected;
}


// ************************************************************************* //
